Circuit: * INA250A2

Fatal Error: No analysis request found.
