Circuit: * C:\Users\andys\OneDrive\Documents\Work\DBLS\DMM\Hardware\Simulations\Analog Front End\ADS7853_ADC_Model.asc

WARNING: Less than two connections to node ERROR_IN_LSB.  This node is used by E1.
Direct Newton iteration failed to find .op point.  (Use ".option noopiter" to skip.)
Starting Gmin stepping
Gmin = 10
Gmin = 1.07374
vernier = 0.5
vernier = 0.666667
Gmin = 0.326867
vernier = 0.888888
Gmin = 0.055448
vernier = 1
Gmin = 0.006089
vernier = 0.5
Gmin = 0.00102156
vernier = 0.25
vernier = 0.125
vernier = 0.0625
vernier = 0.03125
Gmin = 0.00099805
vernier = 0.015625
vernier = 0.0078125
vernier = 0.00390625
vernier = 0.00195313
Gmin = 0.00100047
vernier = 0.000976563
vernier = 0.000488281
Gmin = 0
Gmin stepping failed

Starting source stepping with srcstepmethod=0
Source Step = 3.0303%
Source Step = 23.4848%
Source Step = 31.0606%
Source Step = 38.6364%
Source Step = 46.2121%
Source Step = 53.7879%
vernier = 0.375
Source Step = 62.1212%
Source Step = 73.4848%
Source Step = 84.8485%
Source Step = 96.2121%
Source stepping succeeded in finding the operating point.


Date: Sun Apr 26 19:22:01 2020
Total elapsed time: 0.452 seconds.

tnom = 27
temp = 27
method = modified trap
totiter = 5732
traniter = 3272
tranpoints = 1624
accept = 1416
rejected = 208
matrix size = 133
fillins = 129
solver = Normal
Thread vector: 27.4/5.5[3] 3.3/2.2[3] 2.7/1.6[3] 0.3/0.5[1]  2592/500
Matrix Compiler1: 8.87 KB object code size  2.3/1.0/[0.5]
Matrix Compiler2: 11.79 KB object code size  1.2/2.0/[0.7]

