Circuit: * C:\Users\andys\OneDrive\Documents\Work\DBLS\DMM\Hardware\Simulations\FetMux\FetMux_wVoltage.asc

WARNING: Less than two connections to node ADC_IN.  This node is used by V:U1:OSO.
WARNING: Less than two connections to node VADC.  This node is used by V:U2:OSO.
Direct Newton iteration failed to find .op point.  (Use ".option noopiter" to skip.)
Starting Gmin stepping
Gmin = 10
Gmin = 1.07374
vernier = 0.5
vernier = 0.25
vernier = 0.125
vernier = 0.0625
Gmin = 1.04056
vernier = 0.03125
vernier = 0.015625
vernier = 0.0078125
Gmin = 1.01851
vernier = 0.00390625
vernier = 0.00520833
Gmin = 1.00829
vernier = 0.00260417
vernier = 0.00130208
Gmin = 1.00665
vernier = 0.00173611
vernier = 0.000868055
vernier = 0.00115741
vernier = 0.000578703
Gmin = 1.00527
vernier = 0.000771604
vernier = 0.000578703
Gmin = 1.00406
vernier = 0.000434027
vernier = 0.000578703
Gmin = 1.00308
vernier = 0.000434027
Gmin = 0
Gmin stepping failed

Starting source stepping with srcstepmethod=0
Source Step = 3.0303%
Source Step = 33.3333%
Source Step = 63.6364%
Source Step = 93.9394%
Source stepping succeeded in finding the operating point.


Date: Sun Mar 29 17:08:58 2020
Total elapsed time: 1.238 seconds.

tnom = 27
temp = 27
method = modified trap
totiter = 10013
traniter = 3186
tranpoints = 1063
accept = 1061
rejected = 2
matrix size = 238
fillins = 169
solver = Normal
Thread vector: 16.5/7.6[6] 7.8/3.4[6] 3.3/1.7[6] 0.4/1.0[1]  2592/500
Matrix Compiler1: 14.90 KB object code size  4.4/2.3/[1.1]
Matrix Compiler2: 19.69 KB object code size  2.2/3.2/[1.0]

