Circuit: * C:\Users\andys\OneDrive\Documents\Work\DBLS\DMM\Hardware\Simulations\FetMux\FetMux.asc

WARNING: Less than two connections to node ADC_IN.  This node is used by V:U1:OSO.
Direct Newton iteration for .op point succeeded.

Date: Sun Mar 29 16:38:48 2020
Total elapsed time: 0.251 seconds.

tnom = 27
temp = 27
method = modified trap
totiter = 3172
traniter = 3162
tranpoints = 1055
accept = 1054
rejected = 1
matrix size = 132
fillins = 32
solver = Normal
Thread vector: 26.7/5.9[3] 2.4/3.1[1] 1.4/1.1[3] 0.4/0.6[1]  2592/500
Matrix Compiler1: 5.93 KB object code size  1.4/0.9/[0.5]
Matrix Compiler2: 10.07 KB object code size  0.8/1.3/[0.5]

