Circuit: * AD8022 Spice Model

Fatal Error: No analysis request found.
