Circuit: * C:\Users\birdman\Documents\DirtBagLabSupplies\DMM\Simulation\FetMux\FetMux.asc

WARNING: Less than two connections to node ADC_IN.  This node is used by V:U1:OSO.
Direct Newton iteration for .op point succeeded.

Date: Sun Mar  8 14:33:39 2020
Total elapsed time: 0.105 seconds.

tnom = 27
temp = 27
method = modified trap
totiter = 3172
traniter = 3162
tranpoints = 1055
accept = 1054
rejected = 1
matrix size = 132
fillins = 35
solver = Normal
Thread vector: 5.5/3.4[3] 2.0/1.5[3] 1.0/1.2[1] 0.4/1.1[1]  2592/500
Matrix Compiler1: 6.02 KB object code size  1.2/0.7/[0.3]
Matrix Compiler2: 10.12 KB object code size  0.7/1.1/[0.4]

